14
scan along indxA:0 --> indxB6 - dist:7.75
C     -2.282182     0.094329    -0.000183 
C     -0.893220     0.094263     0.000431 
C     -0.198699     1.297110     0.000040 
C     -0.893125     2.500009    -0.000978 
C     -2.282088     2.500067    -0.001601 
C     -2.976633     1.297226    -0.001196 
H     -2.824040    -0.844049     0.000125 
H     -0.351527    -0.844201     0.001214 
H      0.884886     1.297069     0.000516 
H     -0.351327     3.438411    -0.001306 
H     -2.823832     3.438507    -0.002402 
H     -4.060212     1.297260    -0.001659 
Po    -2.827466    -0.839527     7.750123
Ne    -2.827908    -0.838944     8.750122
